* SPICE NETLIST
***************************************

.SUBCKT crtmom PLUS MINUS BULK
.ENDS
***************************************
.SUBCKT crtmom_rf PLUS MINUS BULK
.ENDS
***************************************
.SUBCKT mimcap_3t PLUS MINUS BULK
.ENDS
***************************************
.SUBCKT mimcap_shield PLUS MINUS BULK
.ENDS
***************************************
.SUBCKT mimcap_wos PLUS MINUS BULK
.ENDS
***************************************
.SUBCKT moscap_rf PLUS MINUS BULK
.ENDS
***************************************
.SUBCKT moscap_rf33 PLUS MINUS BULK
.ENDS
***************************************
.SUBCKT nmos_rf D G S B
.ENDS
***************************************
.SUBCKT nmos_rf33 D G S B
.ENDS
***************************************
.SUBCKT nmoscap PLUS MINUS
.ENDS
***************************************
.SUBCKT nmoscap_33 PLUS MINUS
.ENDS
***************************************
.SUBCKT pmos_rf D G S B
.ENDS
***************************************
.SUBCKT pmos_rf33 D G S B
.ENDS
***************************************
.SUBCKT pmos_rf33_nw D G S B
.ENDS
***************************************
.SUBCKT pmos_rf_nw D G S B
.ENDS
***************************************
.SUBCKT rnod_m PLUS MINUS B
.ENDS
***************************************
.SUBCKT rnodrpo_m PLUS MINUS B
.ENDS
***************************************
.SUBCKT rnodw_m PLUS MINUS B
.ENDS
***************************************
.SUBCKT rnpo1_dis PLUS MINUS B
.ENDS
***************************************
.SUBCKT rnpo1rpo_dis PLUS MINUS B
.ENDS
***************************************
.SUBCKT rnpo1w_dis PLUS MINUS B
.ENDS
***************************************
.SUBCKT rnwod_m PLUS MINUS B
.ENDS
***************************************
.SUBCKT rpod_m PLUS MINUS B
.ENDS
***************************************
.SUBCKT rpodrpo_m PLUS MINUS B
.ENDS
***************************************
.SUBCKT rpodw_m PLUS MINUS B
.ENDS
***************************************
.SUBCKT rppo1_dis PLUS MINUS B
.ENDS
***************************************
.SUBCKT rppo1rpo_dis PLUS MINUS B
.ENDS
***************************************
.SUBCKT rppo1w_dis PLUS MINUS B
.ENDS
***************************************
.SUBCKT rppolyhri_dis PLUS MINUS B
.ENDS
***************************************
.SUBCKT rppolyhri_rf PLUS MINUS BULK
.ENDS
***************************************
.SUBCKT rppolyl_rf PLUS MINUS BULK
.ENDS
***************************************
.SUBCKT rppolys_rf PLUS MINUS BULK
.ENDS
***************************************
.SUBCKT rppolywo_rf PLUS MINUS BULK
.ENDS
***************************************
.SUBCKT sbd_rf PLUS MINUS BULK
.ENDS
***************************************
.SUBCKT sbd_rf_nw PLUS MINUS BULK
.ENDS
***************************************
.SUBCKT spiral_s2_std PLUS MINUS BULK
.ENDS
***************************************
.SUBCKT spiral_s2_sym PLUS MINUS BULK
.ENDS
***************************************
.SUBCKT spiral_s2_sym_ct PLUS MINUS BULK CTAP
.ENDS
***************************************
.SUBCKT spiral_s3_std PLUS MINUS BULK
.ENDS
***************************************
.SUBCKT spiral_s3_sym PLUS MINUS BULK
.ENDS
***************************************
.SUBCKT spiral_s3_sym_ct PLUS MINUS BULK CTAP
.ENDS
***************************************
.SUBCKT xjvar_nr36 PLUS MINUS BULK
.ENDS
***************************************
.SUBCKT xjvar_w40 PLUS MINUS BULK
.ENDS
***************************************
.SUBCKT ICV_119
** N=2 EP=0 IP=0 FDC=0
.ENDS
***************************************
.SUBCKT PDIDGZ C PAD
** N=4 EP=2 IP=0 FDC=0
.ENDS
***************************************
.SUBCKT PAD60GU
** N=1 EP=0 IP=0 FDC=0
.ENDS
***************************************
.SUBCKT PAD60NU
** N=1 EP=0 IP=0 FDC=0
.ENDS
***************************************
.SUBCKT ICV_118 1 2 3 4 5 6
** N=6 EP=6 IP=10 FDC=0
X0 1 3 PDIDGZ $T=0 264720 0 270 $X=598 $Y=237040
X1 2 4 PDIDGZ $T=0 344440 0 270 $X=598 $Y=316760
.ENDS
***************************************
.SUBCKT ICV_117 1 2 3 4 5 6
** N=6 EP=6 IP=10 FDC=0
X0 1 3 PDIDGZ $T=0 424160 0 270 $X=598 $Y=396480
X1 2 4 PDIDGZ $T=0 503880 0 270 $X=598 $Y=476200
.ENDS
***************************************
.SUBCKT ICV_116 2 3 4 5 6 7
** N=11 EP=6 IP=11 FDC=0
X0 2 4 PDIDGZ $T=0 583600 0 270 $X=598 $Y=555920
X1 3 5 PDIDGZ $T=0 663320 0 270 $X=598 $Y=635640
.ENDS
***************************************
.SUBCKT ICV_115 2 3 4 5 6 7
** N=12 EP=6 IP=11 FDC=0
X0 2 4 PDIDGZ $T=0 822760 0 270 $X=598 $Y=795080
X1 3 5 PDIDGZ $T=0 982200 0 270 $X=598 $Y=954520
.ENDS
***************************************
.SUBCKT ICV_114 1 2 3 4 5 6
** N=6 EP=6 IP=10 FDC=0
X0 1 3 PDIDGZ $T=0 1061920 0 270 $X=598 $Y=1034240
X1 2 4 PDIDGZ $T=0 1141640 0 270 $X=598 $Y=1113960
.ENDS
***************************************
.SUBCKT ICV_113 2 3 4 5 6 7
** N=12 EP=6 IP=11 FDC=0
X0 2 4 PDIDGZ $T=0 1301080 0 270 $X=598 $Y=1273400
X1 3 5 PDIDGZ $T=0 1380800 0 270 $X=598 $Y=1353120
.ENDS
***************************************
.SUBCKT ICV_112 1 2 3 4 5 6 7 8
** N=8 EP=8 IP=15 FDC=0
X0 1 4 PDIDGZ $T=0 1460520 0 270 $X=598 $Y=1432840
X1 3 5 PDIDGZ $T=0 1540240 0 270 $X=598 $Y=1512560
X2 2 6 PDIDGZ $T=0 1619960 0 270 $X=598 $Y=1592280
.ENDS
***************************************
.SUBCKT ICV_111 1 2 3 4
** N=8 EP=4 IP=6 FDC=0
X0 1 2 PDIDGZ $T=0 1779400 0 270 $X=598 $Y=1751720
.ENDS
***************************************
.SUBCKT ICV_110 1 2 3 4
** N=9 EP=4 IP=6 FDC=0
X0 1 2 PDIDGZ $T=0 1938840 0 270 $X=598 $Y=1911160
.ENDS
***************************************
.SUBCKT PDO12CDG I PAD
** N=4 EP=2 IP=0 FDC=0
.ENDS
***************************************
.SUBCKT ICV_109 2 3 4 5 6 7
** N=11 EP=6 IP=11 FDC=0
X0 2 4 PDIDGZ $T=0 2018560 0 270 $X=598 $Y=1990880
X4 3 5 PDO12CDG $T=0 2098280 0 270 $X=598 $Y=2070600
.ENDS
***************************************
.SUBCKT ICV_108 2 3 4 5 6 7
** N=12 EP=6 IP=11 FDC=0
X3 2 4 PDO12CDG $T=0 2257720 0 270 $X=598 $Y=2230040
X4 3 5 PDO12CDG $T=0 2417160 0 270 $X=598 $Y=2389480
.ENDS
***************************************
.SUBCKT ICV_107 1 2 3 4 5 6
** N=6 EP=6 IP=10 FDC=0
X2 2 3 PDO12CDG $T=0 2496880 0 270 $X=598 $Y=2469200
X3 1 4 PDO12CDG $T=0 2576600 0 270 $X=598 $Y=2548920
.ENDS
***************************************
.SUBCKT ICV_106 1 2 3 4 5 6 7 8
** N=8 EP=8 IP=15 FDC=0
X3 1 4 PDO12CDG $T=0 2656320 0 270 $X=598 $Y=2628640
X4 3 6 PDO12CDG $T=0 2736040 0 270 $X=598 $Y=2708360
X5 2 5 PDO12CDG $T=0 2815760 0 270 $X=598 $Y=2788080
.ENDS
***************************************
.SUBCKT ICV_105
** N=6 EP=0 IP=1 FDC=0
.ENDS
***************************************
.SUBCKT ICV_104 1 2 3 4
** N=9 EP=4 IP=6 FDC=0
X2 1 2 PDO12CDG $T=0 2975200 0 270 $X=598 $Y=2947520
.ENDS
***************************************
.SUBCKT ICV_103
** N=2 EP=0 IP=0 FDC=0
.ENDS
***************************************
.SUBCKT ICV_102 1 2 3 4 5 6
** N=6 EP=6 IP=10 FDC=0
X2 1 4 PDO12CDG $T=234775 0 0 0 $X=237093 $Y=598
X3 2 3 PDO12CDG $T=314550 0 0 0 $X=316868 $Y=598
.ENDS
***************************************
.SUBCKT ICV_101
** N=2492 EP=0 IP=0 FDC=0
.ENDS
***************************************
.SUBCKT ICV_100
** N=3025 EP=0 IP=0 FDC=0
.ENDS
***************************************
.SUBCKT ICV_99
** N=2406 EP=0 IP=0 FDC=0
.ENDS
***************************************
.SUBCKT ICV_98
** N=3130 EP=0 IP=0 FDC=0
.ENDS
***************************************
.SUBCKT ICV_97
** N=2174 EP=0 IP=0 FDC=0
.ENDS
***************************************
.SUBCKT ICV_96
** N=4108 EP=0 IP=0 FDC=0
.ENDS
***************************************
.SUBCKT ICV_95
** N=2627 EP=0 IP=0 FDC=0
.ENDS
***************************************
.SUBCKT ICV_94
** N=2166 EP=0 IP=0 FDC=0
.ENDS
***************************************
.SUBCKT ICV_93
** N=2844 EP=0 IP=0 FDC=0
.ENDS
***************************************
.SUBCKT ICV_92
** N=3006 EP=0 IP=0 FDC=0
.ENDS
***************************************
.SUBCKT ICV_91
** N=2273 EP=0 IP=0 FDC=0
.ENDS
***************************************
.SUBCKT ICV_90
** N=2318 EP=0 IP=0 FDC=0
.ENDS
***************************************
.SUBCKT BUFX20 A Y VDD VSS
** N=6 EP=4 IP=0 FDC=0
.ENDS
***************************************
.SUBCKT ICV_89 9 10 12 13 14 233 234
** N=3326 EP=7 IP=12 FDC=0
X0 12 13 10 9 BUFX20 $T=325380 2721040 0 0 $X=325378 $Y=2720638
X1 12 14 10 9 BUFX20 $T=325380 2731120 1 0 $X=325378 $Y=2725680
.ENDS
***************************************
.SUBCKT ICV_88
** N=2050 EP=0 IP=0 FDC=0
.ENDS
***************************************
.SUBCKT ICV_87
** N=2452 EP=0 IP=0 FDC=0
.ENDS
***************************************
.SUBCKT ICV_86 1 2 3 4 5 6
** N=6 EP=6 IP=10 FDC=0
X0 1 3 PDIDGZ $T=264775 3289640 0 180 $X=237095 $Y=3104640
X1 2 4 PDIDGZ $T=344550 3289640 0 180 $X=316870 $Y=3104640
.ENDS
***************************************
.SUBCKT ICV_85 2 3 4 5 6 7 8 9
** N=13 EP=8 IP=16 FDC=0
X4 2 7 PDO12CDG $T=394325 0 0 0 $X=396643 $Y=598
X5 3 5 PDO12CDG $T=474100 0 0 0 $X=476418 $Y=598
X6 4 6 PDO12CDG $T=633650 0 0 0 $X=635968 $Y=598
.ENDS
***************************************
.SUBCKT ICV_84
** N=4458 EP=0 IP=0 FDC=0
.ENDS
***************************************
.SUBCKT ICV_83
** N=4679 EP=0 IP=0 FDC=0
.ENDS
***************************************
.SUBCKT ICV_82
** N=3780 EP=0 IP=0 FDC=0
.ENDS
***************************************
.SUBCKT ICV_81
** N=5097 EP=0 IP=0 FDC=0
.ENDS
***************************************
.SUBCKT ICV_80
** N=3379 EP=0 IP=0 FDC=0
.ENDS
***************************************
.SUBCKT NAND2X1 B VSS A VDD Y
** N=7 EP=5 IP=0 FDC=0
.ENDS
***************************************
.SUBCKT NOR2X4 B VDD VSS A Y
** N=7 EP=5 IP=0 FDC=0
.ENDS
***************************************
.SUBCKT NAND2BX1 AN VSS B Y VDD
** N=7 EP=5 IP=0 FDC=0
.ENDS
***************************************
.SUBCKT OAI21X1 A1 A0 VSS B0 VDD Y
** N=8 EP=6 IP=0 FDC=0
.ENDS
***************************************
.SUBCKT OAI21XL A1 VSS A0 B0 VDD Y
** N=8 EP=6 IP=0 FDC=0
.ENDS
***************************************
.SUBCKT XOR2X4 B A Y VSS VDD
** N=7 EP=5 IP=0 FDC=0
.ENDS
***************************************
.SUBCKT INVX1 A VSS VDD Y
** N=6 EP=4 IP=0 FDC=0
.ENDS
***************************************
.SUBCKT AOI21X2 A0 A1 VDD B0 Y VSS
** N=8 EP=6 IP=0 FDC=0
.ENDS
***************************************
.SUBCKT NOR2X1 VDD B A Y VSS
** N=7 EP=5 IP=0 FDC=0
.ENDS
***************************************
.SUBCKT NOR2X2 A B VSS VDD Y
** N=7 EP=5 IP=0 FDC=0
.ENDS
***************************************
.SUBCKT OR2XL A B VSS VDD Y
** N=7 EP=5 IP=0 FDC=0
.ENDS
***************************************
.SUBCKT NAND2X2 A B Y VSS VDD
** N=7 EP=5 IP=0 FDC=0
.ENDS
***************************************
.SUBCKT AOI21X4 A0 VDD A1 B0 VSS Y
** N=8 EP=6 IP=0 FDC=0
.ENDS
***************************************
.SUBCKT AND2X2 A VDD B VSS Y
** N=7 EP=5 IP=0 FDC=0
.ENDS
***************************************
.SUBCKT NAND2X4 B VSS A VDD Y
** N=7 EP=5 IP=0 FDC=0
.ENDS
***************************************
.SUBCKT OR2X2 A B VSS VDD Y
** N=7 EP=5 IP=0 FDC=0
.ENDS
***************************************
.SUBCKT NAND2XL B VSS VDD A Y
** N=7 EP=5 IP=0 FDC=0
.ENDS
***************************************
.SUBCKT INVX4 A Y VSS VDD
** N=6 EP=4 IP=0 FDC=0
.ENDS
***************************************
.SUBCKT AOI21X1 A1 A0 VDD B0 Y VSS
** N=8 EP=6 IP=0 FDC=0
.ENDS
***************************************
.SUBCKT OAI21X2 A1 A0 VSS B0 VDD Y
** N=8 EP=6 IP=0 FDC=0
.ENDS
***************************************
.SUBCKT XNOR2X4 B A Y VSS VDD
** N=7 EP=5 IP=0 FDC=0
.ENDS
***************************************
.SUBCKT OAI21X4 A1 VSS A0 B0 VDD Y
** N=8 EP=6 IP=0 FDC=0
.ENDS
***************************************
.SUBCKT CLKBUFX8 A VSS Y VDD
** N=6 EP=4 IP=0 FDC=0
.ENDS
***************************************
.SUBCKT XOR2X2 B A VDD VSS Y
** N=7 EP=5 IP=0 FDC=0
.ENDS
***************************************
.SUBCKT INVX2 A VSS Y VDD
** N=6 EP=4 IP=0 FDC=0
.ENDS
***************************************
.SUBCKT ICV_79 2 3 45 47 49 50 51 54 55 56 57 58 59 60 61 62 63 64 65 67
+ 68 69 70 71 73 74 75 76 77 78 79 80 82 84 105 106 136 468 469
** N=6894 EP=39 IP=560 FDC=0
X0 47 3 45 2 1775 NAND2X1 $T=578820 1390480 0 180 $X=576840 $Y=1385040
X1 49 3 50 2 1856 NAND2X1 $T=592680 1390480 0 0 $X=592678 $Y=1390078
X2 54 3 51 2 1886 NAND2X1 $T=599280 1420720 1 180 $X=597300 $Y=1420318
X3 1886 3 1968 2 1970 NAND2X1 $T=605220 1420720 1 0 $X=605218 $Y=1415280
X4 1884 3 1969 2 2004 NAND2X1 $T=605880 1340080 0 0 $X=605878 $Y=1339678
X5 57 3 58 2 1996 NAND2X1 $T=610500 1299760 0 0 $X=610498 $Y=1299358
X6 62 3 60 2 2038 NAND2X1 $T=615780 1319920 0 180 $X=613800 $Y=1314480
X7 2033 3 2059 2 1944 NAND2X1 $T=621060 1390480 1 0 $X=621058 $Y=1385040
X8 65 3 67 2 2089 NAND2X1 $T=625680 1340080 0 0 $X=625678 $Y=1339678
X9 59 3 2120 2 2148 NAND2X1 $T=629640 1420720 0 0 $X=629638 $Y=1420318
X10 2039 3 2216 2 2180 NAND2X1 $T=648120 1269520 1 0 $X=648118 $Y=1264080
X11 47 2 3 45 1826 NOR2X4 $T=587400 1390480 0 180 $X=582780 $Y=1385040
X12 1826 2 3 1860 1973 NOR2X4 $T=598620 1380400 0 0 $X=598618 $Y=1379998
X13 61 2 3 64 2033 NOR2X4 $T=619740 1430800 1 0 $X=619738 $Y=1425360
X14 1826 3 1775 1801 2 NAND2BX1 $T=586740 1380400 1 180 $X=584100 $Y=1379998
X15 1860 3 1856 1857 2 NAND2BX1 $T=595320 1360240 1 180 $X=592680 $Y=1359838
X16 2124 3 2089 2088 2 NAND2BX1 $T=627000 1309840 1 180 $X=624360 $Y=1309438
X17 2160 3 2146 84 2 NAND2BX1 $T=645480 1330000 0 0 $X=645478 $Y=1329598
X18 64 3 59 2222 2 NAND2BX1 $T=650760 1420720 0 0 $X=650758 $Y=1420318
X19 1856 1826 3 1775 2 1829 OAI21X1 $T=593340 1380400 1 180 $X=590040 $Y=1379998
X20 2038 1997 3 1996 2 2098 OAI21X1 $T=619740 1289680 1 0 $X=619738 $Y=1284240
X21 2160 74 3 2146 2 2188 OAI21X1 $T=646140 1319920 1 180 $X=642840 $Y=1319518
X22 1860 3 1858 1856 2 1855 OAI21XL $T=595320 1370320 1 180 $X=592680 $Y=1369918
X23 2180 3 74 2163 2 2151 OAI21XL $T=640860 1259440 0 180 $X=638220 $Y=1254000
X24 2152 3 74 2159 2 2184 OAI21XL $T=644820 1269520 1 180 $X=642180 $Y=1269118
X25 1801 1942 55 3 2 XOR2X4 $T=595320 1350160 0 0 $X=595318 $Y=1349758
X26 2088 2293 105 3 2 XOR2X4 $T=647460 1309840 1 0 $X=647458 $Y=1304400
X27 2222 2161 106 3 2 XOR2X4 $T=647460 1410640 0 0 $X=647458 $Y=1410238
X28 2096 2292 136 3 2 XOR2X4 $T=650760 1259440 0 0 $X=650758 $Y=1259038
X29 1857 3 2 1884 INVX1 $T=595980 1340080 0 0 $X=595978 $Y=1339678
X30 1997 3 2 1976 INVX1 $T=610500 1289680 0 180 $X=609180 $Y=1284240
X31 1858 3 2 2005 INVX1 $T=613800 1370320 1 0 $X=613798 $Y=1364880
X32 2006 3 2 2039 INVX1 $T=614460 1269520 1 0 $X=614458 $Y=1264080
X33 1969 3 2 1971 INVX1 $T=614460 1340080 0 0 $X=614458 $Y=1339678
X34 1944 3 2 2008 INVX1 $T=618420 1370320 0 180 $X=617100 $Y=1364880
X35 2038 3 2 2117 INVX1 $T=619740 1269520 1 0 $X=619738 $Y=1264080
X36 2099 3 2 2159 INVX1 $T=628980 1269520 1 180 $X=627660 $Y=1269118
X37 2216 3 2 2152 INVX1 $T=659340 1269520 0 0 $X=659338 $Y=1269118
X38 56 1943 2 1855 1942 3 AOI21X2 $T=603240 1360240 1 180 $X=598620 $Y=1359838
X39 56 2008 2 2005 1969 3 AOI21X2 $T=616440 1360240 1 180 $X=611820 $Y=1359838
X40 2149 56 2 2151 2123 3 AOI21X2 $T=634920 1239280 0 0 $X=634918 $Y=1238878
X41 2182 56 2 2188 2293 3 AOI21X2 $T=645480 1309840 0 0 $X=645478 $Y=1309438
X42 56 2181 2 2184 2292 3 AOI21X2 $T=654720 1269520 1 180 $X=650100 $Y=1269118
X43 2 1860 1944 1943 3 NOR2X1 $T=601260 1370320 0 0 $X=601258 $Y=1369918
X44 2 2152 73 2181 3 NOR2X1 $T=637560 1269520 0 0 $X=637558 $Y=1269118
X45 2 2160 73 2182 3 NOR2X1 $T=640200 1309840 0 0 $X=640198 $Y=1309438
X46 2 2180 73 2149 3 NOR2X1 $T=642180 1249360 1 180 $X=640200 $Y=1248958
X47 2 64 82 2191 3 NOR2X1 $T=650100 1420720 1 180 $X=648120 $Y=1420318
X48 50 49 3 2 1860 NOR2X2 $T=601260 1390480 0 0 $X=601258 $Y=1390078
X49 58 57 3 2 1997 NOR2X2 $T=609840 1289680 0 0 $X=609838 $Y=1289278
X50 60 62 3 2 2006 NOR2X2 $T=616440 1309840 1 0 $X=616438 $Y=1304400
X51 2006 1997 3 2 2118 NOR2X2 $T=619080 1289680 0 0 $X=619078 $Y=1289278
X52 67 65 3 2 2124 NOR2X2 $T=632940 1340080 0 0 $X=632938 $Y=1339678
X53 2160 2124 3 2 2216 NOR2X2 $T=636900 1299760 0 0 $X=636898 $Y=1299358
X54 77 75 3 2 2160 NOR2X2 $T=643500 1360240 1 0 $X=643498 $Y=1354800
X55 51 54 3 2 1968 OR2XL $T=604560 1420720 0 0 $X=604558 $Y=1420318
X56 1971 1857 1974 3 2 NAND2X2 $T=605880 1340080 1 0 $X=605878 $Y=1334640
X57 77 75 2146 3 2 NAND2X2 $T=638880 1360240 0 180 $X=635580 $Y=1354800
X58 2216 2118 80 3 2 NAND2X2 $T=649440 1289680 0 180 $X=646140 $Y=1284240
X59 1973 2 1999 1829 3 1977 AOI21X4 $T=615120 1380400 1 180 $X=608520 $Y=1379998
X60 2035 2 2033 1999 3 1858 AOI21X4 $T=617760 1390480 1 180 $X=611160 $Y=1390078
X61 2118 2 2099 2098 3 79 AOI21X4 $T=630300 1289680 1 0 $X=630298 $Y=1284240
X62 69 2 2059 2035 3 2161 AOI21X4 $T=632940 1390480 0 0 $X=632938 $Y=1390078
X63 1976 2 1996 3 1998 AND2X2 $T=609840 1279600 1 0 $X=609838 $Y=1274160
X64 1974 3 2004 2 63 NAND2X4 $T=611820 1340080 1 0 $X=611818 $Y=1334640
X65 1886 3 2000 2 1999 NAND2X4 $T=611820 1420720 1 0 $X=611818 $Y=1415280
X66 1973 3 2033 2 71 NAND2X4 $T=622380 1380400 1 0 $X=622378 $Y=1374960
X67 61 59 3 2 2000 OR2X2 $T=615120 1420720 1 180 $X=612480 $Y=1420318
X68 68 64 3 2 2120 OR2X2 $T=637560 1430800 0 180 $X=634920 $Y=1425360
X69 2038 3 2 2039 2096 NAND2XL $T=617100 1259440 0 0 $X=617098 $Y=1259038
X70 68 2035 3 2 INVX4 $T=627000 1390480 1 180 $X=624360 $Y=1390078
X71 2039 2099 2 2117 2163 3 AOI21X1 $T=629640 1259440 0 0 $X=629638 $Y=1259038
X72 2191 69 2 2148 2154 3 AOI21X1 $T=640200 1420720 1 180 $X=637560 $Y=1420318
X73 2146 2124 3 2089 2 2099 OAI21X2 $T=634920 1319920 1 180 $X=629640 $Y=1319518
X74 1998 2123 76 3 2 XNOR2X4 $T=630300 1229200 1 0 $X=630298 $Y=1223760
X75 71 3 68 1977 2 70 OAI21X4 $T=639540 1380400 1 180 $X=632280 $Y=1379998
X76 69 3 56 2 CLKBUFX8 $T=633600 1390480 1 0 $X=633598 $Y=1385040
X77 1970 2154 2 3 78 XOR2X2 $T=635580 1410640 0 0 $X=635578 $Y=1410238
X78 82 3 2059 2 INVX2 $T=653400 1390480 0 0 $X=653398 $Y=1390078
.ENDS
***************************************
.SUBCKT INVXL A VDD VSS Y
** N=6 EP=4 IP=0 FDC=0
.ENDS
***************************************
.SUBCKT AOI31X1 A2 A1 A0 VDD B0 Y VSS
** N=9 EP=7 IP=0 FDC=0
.ENDS
***************************************
.SUBCKT XNOR2X2 B A VDD VSS Y
** N=7 EP=5 IP=0 FDC=0
.ENDS
***************************************
.SUBCKT XOR2X1 B A VSS VDD Y
** N=7 EP=5 IP=0 FDC=0
.ENDS
***************************************
.SUBCKT NOR2BX1 AN VDD B Y VSS
** N=7 EP=5 IP=0 FDC=0
.ENDS
***************************************
.SUBCKT ADDFX2 B A CI CO VDD VSS S
** N=9 EP=7 IP=0 FDC=0
.ENDS
***************************************
.SUBCKT XNOR2X1 B A VSS VDD Y
** N=7 EP=5 IP=0 FDC=0
.ENDS
***************************************
.SUBCKT OAI221XL B1 B0 VSS A0 VDD A1 C0 Y
** N=10 EP=8 IP=0 FDC=0
.ENDS
***************************************
.SUBCKT ADDHXL B S A VDD VSS CO
** N=8 EP=6 IP=0 FDC=0
.ENDS
***************************************
.SUBCKT NOR2XL VDD B A Y VSS
** N=7 EP=5 IP=0 FDC=0
.ENDS
***************************************
.SUBCKT XOR3X2 A B C VSS VDD Y
** N=8 EP=6 IP=0 FDC=0
.ENDS
***************************************
.SUBCKT AOI21XL A1 A0 VDD B0 VSS Y
** N=8 EP=6 IP=0 FDC=0
.ENDS
***************************************
.SUBCKT OAI2BB1X1 A1N A0N B0 VSS Y VDD
** N=8 EP=6 IP=0 FDC=0
.ENDS
***************************************
.SUBCKT ICV_78 1 2 30 32 34 35 36 39 40 41 42 44 45 46 47 48 49 50 51 52
+ 54 55 56 58 59 60 61 62 63 64 65 66 67 68 70 71 72 74 75 76
+ 77 83 84 85 86 87 90 91 92 93 94 95 108 109 110 391 392
** N=4186 EP=57 IP=633 FDC=0
X0 1145 2 30 1 1204 NAND2X1 $T=582120 1521520 1 0 $X=582118 $Y=1516080
X1 1202 2 1189 1 1174 NAND2X1 $T=584760 1521520 1 180 $X=582780 $Y=1521118
X2 1192 2 1203 1 1206 NAND2X1 $T=585420 1582000 1 0 $X=585418 $Y=1576560
X3 1204 2 1190 1 1280 NAND2X1 $T=591360 1481200 1 180 $X=589380 $Y=1480798
X4 47 2 45 1 46 NAND2X1 $T=614460 1440880 0 180 $X=612480 $Y=1435440
X5 1351 2 1336 1 1334 NAND2X1 $T=620400 1481200 1 180 $X=618420 $Y=1480798
X6 1336 2 1358 1 1372 NAND2X1 $T=624360 1481200 0 0 $X=624358 $Y=1480798
X7 1370 2 1337 1 1351 NAND2X1 $T=625680 1551760 1 0 $X=625678 $Y=1546320
X8 1429 2 1431 1 1442 NAND2X1 $T=642840 1501360 0 0 $X=642838 $Y=1500958
X9 1408 2 36 1 1384 NAND2X1 $T=646800 1511440 1 0 $X=646798 $Y=1506000
X10 72 2 74 1 1416 NAND2X1 $T=648120 1461040 1 0 $X=648118 $Y=1455600
X11 39 1 2 40 109 NOR2X4 $T=605220 1430800 0 0 $X=605218 $Y=1430398
X12 72 1 2 74 1428 NOR2X4 $T=648120 1450960 1 0 $X=648118 $Y=1445520
X13 1207 2 1206 1211 1 NAND2BX1 $T=590040 1561840 1 0 $X=590038 $Y=1556400
X14 1428 2 1416 60 1 NAND2BX1 $T=642840 1440880 0 180 $X=640200 $Y=1435440
X15 1317 2 1374 1421 1 NAND2BX1 $T=642840 1531600 1 0 $X=642838 $Y=1526160
X16 1204 1174 2 1209 1 32 OAI21X1 $T=590700 1521520 0 180 $X=587400 $Y=1516080
X17 1173 2 34 1204 1 1223 OAI21XL $T=590040 1471120 0 0 $X=590038 $Y=1470718
X18 1193 2 34 1224 1 1277 OAI21XL $T=591360 1501360 1 0 $X=591358 $Y=1495920
X19 1238 2 34 1229 1 1230 OAI21XL $T=597960 1511440 0 180 $X=595320 $Y=1506000
X20 1350 2 34 1314 1 1312 OAI21XL $T=613800 1471120 1 180 $X=611160 $Y=1470718
X21 1372 2 34 1377 1 1407 OAI21XL $T=627000 1481200 0 0 $X=626998 $Y=1480798
X22 1381 2 1429 1382 1 1356 OAI21XL $T=633600 1511440 1 180 $X=630960 $Y=1511038
X23 86 2 1473 83 1 94 OAI21XL $T=656700 1461040 0 0 $X=656698 $Y=1460638
X24 1206 2 1 1191 INVX1 $T=586080 1561840 0 180 $X=584760 $Y=1556400
X25 1207 2 1 1189 INVX1 $T=587400 1551760 1 180 $X=586080 $Y=1551358
X26 1278 2 1 1205 INVX1 $T=595980 1541680 1 180 $X=594660 $Y=1541278
X27 36 2 1 1238 INVX1 $T=598620 1511440 1 180 $X=597300 $Y=1511038
X28 1282 2 1 1202 INVX1 $T=605220 1531600 1 180 $X=603900 $Y=1531198
X29 1313 2 1 1336 INVX1 $T=611820 1491280 0 0 $X=611818 $Y=1490878
X30 1351 2 1 1368 INVX1 $T=622380 1501360 1 0 $X=622378 $Y=1495920
X31 1356 2 1 1314 INVX1 $T=623700 1471120 1 180 $X=622380 $Y=1470718
X32 61 2 1 1473 INVX1 $T=651420 1461040 0 0 $X=651418 $Y=1460638
X33 1 1145 30 1173 2 NOR2X1 $T=569580 1521520 1 0 $X=569578 $Y=1516080
X34 1 1173 1174 36 2 NOR2X1 $T=577500 1511440 0 0 $X=577498 $Y=1511038
X35 1 1192 1203 1207 2 NOR2X1 $T=585420 1571920 0 0 $X=585418 $Y=1571518
X36 1 1370 1337 1313 2 NOR2X1 $T=620400 1551760 0 180 $X=618420 $Y=1546320
X37 1 1417 1316 1282 2 NOR2X1 $T=620400 1561840 0 180 $X=618420 $Y=1556400
X38 1 1376 54 1381 2 NOR2X1 $T=627000 1511440 1 0 $X=626998 $Y=1506000
X39 1 1381 1384 1358 2 NOR2X1 $T=629640 1501360 1 0 $X=629638 $Y=1495920
X40 1 77 1469 1408 2 NOR2X1 $T=652740 1521520 0 180 $X=650760 $Y=1516080
X41 1 110 63 1469 2 NOR2X1 $T=661980 1541680 0 180 $X=660000 $Y=1536240
X42 45 47 2 1 51 NOR2X2 $T=619740 1440880 1 0 $X=619738 $Y=1435440
X43 86 1428 2 1 62 NOR2X2 $T=655380 1450960 0 0 $X=655378 $Y=1450558
X44 87 92 2 1 86 NOR2X2 $T=659340 1481200 0 180 $X=656040 $Y=1475760
X45 1419 1416 1411 2 1 NAND2X2 $T=639540 1440880 0 0 $X=639538 $Y=1440478
X46 87 92 83 2 1 NAND2X2 $T=658020 1481200 0 0 $X=658018 $Y=1480798
X47 62 1 61 1411 2 59 AOI21X4 $T=644160 1450960 1 180 $X=637560 $Y=1450558
X48 1313 1317 2 1 1347 OR2X2 $T=613800 1531600 1 0 $X=613798 $Y=1526160
X49 34 1384 2 1 1431 OR2X2 $T=634920 1501360 0 0 $X=634918 $Y=1500958
X50 1428 83 2 1 1419 OR2X2 $T=654060 1440880 0 0 $X=654058 $Y=1440478
X51 1189 2 1 1190 1193 NAND2XL $T=584100 1501360 1 0 $X=584098 $Y=1495920
X52 1417 2 1 1316 1278 NAND2XL $T=610500 1561840 0 180 $X=608520 $Y=1556400
X53 56 2 1 1391 1374 NAND2XL $T=631620 1541680 0 180 $X=629640 $Y=1536240
X54 1376 2 1 54 1382 NAND2XL $T=634260 1521520 0 180 $X=632280 $Y=1516080
X55 1406 2 1 1408 64 NAND2XL $T=637560 1521520 1 0 $X=637558 $Y=1516080
X56 1191 1202 1 1205 1209 2 AOI21X1 $T=585420 1541680 1 0 $X=585418 $Y=1536240
X57 1356 1336 1 1368 1377 2 AOI21X1 $T=624360 1491280 1 0 $X=624358 $Y=1485840
X58 1408 32 1 66 1429 2 AOI21X1 $T=646800 1521520 0 180 $X=644160 $Y=1516080
X59 1281 1277 1 2 41 XOR2X2 $T=601260 1501360 1 0 $X=601258 $Y=1495920
X60 1173 1 2 1190 INVXL $T=580140 1481200 0 0 $X=580138 $Y=1480798
X61 32 1 2 1229 INVXL $T=592020 1511440 0 180 $X=590700 $Y=1506000
X62 1358 1 2 1350 INVXL $T=631620 1471120 1 180 $X=630300 $Y=1470718
X63 1469 1 2 108 INVXL $T=660000 1511440 0 0 $X=659998 $Y=1511038
X64 1145 30 1189 1 1191 1224 2 AOI31X1 $T=586080 1531600 1 0 $X=586078 $Y=1526160
X65 1211 1223 1 2 35 XNOR2X2 $T=588060 1461040 0 0 $X=588058 $Y=1460638
X66 48 1230 1 2 42 XNOR2X2 $T=616440 1511440 0 180 $X=609180 $Y=1506000
X67 34 1280 2 1 44 XOR2X1 $T=600600 1471120 0 0 $X=600598 $Y=1470718
X68 1278 1 1282 1281 2 NOR2BX1 $T=607200 1541680 1 180 $X=604560 $Y=1541278
X69 1413 52 49 1203 1 2 1145 ADDFX2 $T=628320 1592080 1 180 $X=614460 $Y=1591678
X70 1414 1371 1348 1316 1 2 1192 ADDFX2 $T=630300 1582000 1 180 $X=616440 $Y=1581598
X71 93 55 65 1423 1 2 1371 ADDFX2 $T=652740 1571920 1 180 $X=638880 $Y=1571518
X72 67 58 55 1425 1 2 1418 ADDFX2 $T=653400 1592080 0 180 $X=639540 $Y=1586640
X73 85 1468 1418 1348 1 2 1413 ADDFX2 $T=654060 1592080 1 180 $X=640200 $Y=1591678
X74 84 1423 1430 63 1 2 1417 ADDFX2 $T=654720 1561840 1 180 $X=640860 $Y=1561438
X75 1471 56 1425 1430 1 2 1414 ADDFX2 $T=654720 1582000 0 180 $X=640860 $Y=1576560
X76 1334 1312 2 1 50 XNOR2X1 $T=616440 1461040 1 0 $X=616438 $Y=1455600
X77 1421 1407 2 1 68 XNOR2X1 $T=640200 1481200 0 0 $X=640198 $Y=1480798
X78 1347 1382 2 1317 1 1351 1374 1378 OAI221XL $T=629640 1531600 0 180 $X=625020 $Y=1526160
X79 58 1370 55 1 2 1391 ADDHXL $T=639540 1551760 1 180 $X=632280 $Y=1551358
X80 70 1376 67 1 2 1337 ADDHXL $T=650760 1551760 0 180 $X=643500 $Y=1546320
X81 71 1468 75 1 2 1471 ADDHXL $T=645480 1602160 0 0 $X=645478 $Y=1601758
X82 1 1381 1347 1406 2 NOR2XL $T=634920 1531600 1 0 $X=634918 $Y=1526160
X83 1 56 1391 1317 2 NOR2XL $T=636240 1541680 0 0 $X=636238 $Y=1541278
X84 54 1376 1442 2 1 76 XOR3X2 $T=638220 1491280 0 0 $X=638218 $Y=1490878
X85 1406 66 1 1378 2 91 AOI21XL $T=654720 1521520 0 0 $X=654718 $Y=1521118
X86 108 32 95 2 90 1 OAI2BB1X1 $T=661320 1511440 0 180 $X=658020 $Y=1506000
.ENDS
***************************************
.SUBCKT NAND2BXL AN VSS B VDD Y
** N=7 EP=5 IP=0 FDC=0
.ENDS
***************************************
.SUBCKT CLKBUFX3 A Y VSS VDD
** N=6 EP=4 IP=0 FDC=0
.ENDS
***************************************
.SUBCKT AOI2BB2X1 A1N A0N B1 B0 VDD VSS Y
** N=9 EP=7 IP=0 FDC=0
.ENDS
***************************************
.SUBCKT ADDFHX1 A B CI CO VDD VSS S
** N=9 EP=7 IP=0 FDC=0
.ENDS
***************************************
.SUBCKT NAND3X1 C VSS B VDD A Y
** N=8 EP=6 IP=0 FDC=0
.ENDS
***************************************
.SUBCKT CMPR32X1 B A C CO VSS VDD S
** N=9 EP=7 IP=0 FDC=0
.ENDS
***************************************
.SUBCKT ICV_77 1 3 16 17 19 20 21 22 23 24 25 26 27 28 29 30 31 32 33 34
+ 35 36 37 38 39 40 41 42 43 44 45 46 47 48 50 51 52 53 54 61
+ 63 75 344 345
** N=3605 EP=44 IP=604 FDC=0
X0 1067 1 1064 3 1033 NAND2X1 $T=571560 1733200 0 180 $X=569580 $Y=1727760
X1 28 1 1079 3 1049 NAND2X1 $T=576840 1763440 1 180 $X=574860 $Y=1763038
X2 1120 1 1098 3 937 NAND2X1 $T=590700 1702960 1 0 $X=590698 $Y=1697520
X3 1173 1 1122 3 1062 NAND2X1 $T=599940 1662640 0 0 $X=599938 $Y=1662238
X4 1191 1 1190 3 1189 NAND2X1 $T=607860 1723120 0 180 $X=605880 $Y=1717680
X5 1205 1 1190 3 1192 NAND2X1 $T=611160 1723120 0 180 $X=609180 $Y=1717680
X6 1191 1 1205 3 1188 NAND2X1 $T=611820 1713040 1 0 $X=611818 $Y=1707600
X7 1045 1 1049 1019 3 NAND2BX1 $T=569580 1773520 0 180 $X=566940 $Y=1768080
X8 1033 939 1 937 3 1016 OAI21X1 $T=562320 1702960 0 180 $X=559020 $Y=1697520
X9 1007 997 1 1063 3 1066 OAI21X1 $T=572880 1692880 0 180 $X=569580 $Y=1687440
X10 957 1 19 1007 3 1018 OAI21XL $T=554400 1733200 0 0 $X=554398 $Y=1732798
X11 1034 1 1069 1062 3 958 OAI21XL $T=572220 1672720 1 0 $X=572218 $Y=1667280
X12 1062 1 1101 1095 3 1065 OAI21XL $T=586740 1652560 1 180 $X=584100 $Y=1652158
X13 1007 1 3 959 INVX1 $T=547800 1682800 0 180 $X=546480 $Y=1677360
X14 24 1 3 25 INVX1 $T=564300 1773520 0 0 $X=564298 $Y=1773118
X15 1016 1 3 1069 INVX1 $T=567600 1672720 1 0 $X=567598 $Y=1667280
X16 1015 24 3 1044 1007 1 AOI21X2 $T=562320 1753360 0 0 $X=562318 $Y=1752958
X17 3 1045 21 1015 1 NOR2X1 $T=557700 1773520 0 180 $X=555720 $Y=1768080
X18 3 28 1079 1045 1 NOR2X1 $T=576840 1773520 1 180 $X=574860 $Y=1773118
X19 3 1101 1034 1043 1 NOR2X1 $T=578820 1662640 1 180 $X=576840 $Y=1662238
X20 3 1173 1122 1034 1 NOR2X1 $T=593340 1662640 1 180 $X=591360 $Y=1662238
X21 3 1175 1129 1101 1 NOR2X1 $T=596640 1652560 0 180 $X=594660 $Y=1647120
X22 957 997 1 3 960 NOR2X2 $T=549120 1692880 0 180 $X=545820 $Y=1687440
X23 1001 939 1 3 1003 NOR2X2 $T=548460 1702960 1 0 $X=548458 $Y=1697520
X24 1064 1067 1 3 1001 NOR2X2 $T=579480 1723120 1 0 $X=579478 $Y=1717680
X25 1098 1120 1 3 939 NOR2X2 $T=584100 1702960 0 180 $X=580800 $Y=1697520
X26 20 1015 957 1 3 NAND2X2 $T=556380 1753360 1 180 $X=553080 $Y=1752958
X27 1043 1003 997 1 3 NAND2X2 $T=563640 1672720 0 0 $X=563638 $Y=1672318
X28 938 3 960 1066 1 31 AOI21X4 $T=578820 1692880 1 0 $X=578818 $Y=1687440
X29 955 3 936 1 922 AND2X2 $T=535260 1672720 0 180 $X=532620 $Y=1667280
X30 936 3 1003 1 1005 AND2X2 $T=551100 1672720 1 0 $X=551098 $Y=1667280
X31 1079 28 1 3 1093 OR2X2 $T=592680 1773520 0 180 $X=590040 $Y=1768080
X32 1175 1 3 1129 1095 NAND2XL $T=601920 1642480 1 180 $X=599940 $Y=1642078
X33 16 19 1 3 INVX4 $T=548460 1753360 1 180 $X=545820 $Y=1752958
X34 955 959 3 958 941 1 AOI21X1 $T=547140 1672720 0 180 $X=544500 $Y=1667280
X35 1003 959 3 1016 1006 1 AOI21X1 $T=555060 1682800 1 0 $X=555058 $Y=1677360
X36 1016 1043 3 1065 1063 1 AOI21X1 $T=569580 1672720 0 0 $X=569578 $Y=1672318
X37 908 923 17 1 3 XNOR2X4 $T=530640 1692880 0 0 $X=530638 $Y=1692478
X38 1019 22 27 1 3 XNOR2X4 $T=559020 1763440 0 0 $X=559018 $Y=1763038
X39 957 3 1 936 INVXL $T=539880 1692880 0 180 $X=538560 $Y=1687440
X40 1017 1018 3 1 23 XNOR2X2 $T=555720 1723120 0 0 $X=555718 $Y=1722718
X41 1050 1048 3 1 26 XNOR2X2 $T=567600 1632400 1 0 $X=567598 $Y=1626960
X42 1080 956 3 1 29 XNOR2X2 $T=575520 1642480 1 0 $X=575518 $Y=1637040
X43 1190 1205 1 3 1218 XOR2X1 $T=613800 1723120 1 0 $X=613798 $Y=1717680
X44 1218 1191 1 3 1110 XOR2X1 $T=619080 1723120 1 180 $X=613800 $Y=1722718