$ Spice netlist generated by v2lvs
$ v2020.2_14.12    Thu Apr 2 15:39:14 PDT 2020
.INCLUDE "tpz973gv_lvs.spi" 
.INCLUDE "tsmc18_lvs.spi" 
*.BUSDELIMITER [ 

.SUBCKT CONV_DW_cmp_0 A[35] A[34] A[33] A[32] A[31] A[30] A[29] A[28] A[27] 
+ A[26] A[25] A[24] A[23] A[22] A[21] A[20] A[19] A[18] A[17] A[16] A[15] A[14] 
+ A[13] A[12] A[11] A[10] A[9] A[8] A[7] A[6] A[5] A[4] A[3] A[2] A[1] A[0] 
+ B[35] B[34] B[33] B[32] B[31] B[30] B[29] B[28] B[27] B[26] B[25] B[24] B[23] 
+ B[22] B[21] B[20] B[19] B[18] B[17] B[16] B[15] B[14] B[13] B[12] B[11] B[10] 
+ B[9] B[8] B[7] B[6] B[5] B[4] B[3] B[2] B[1] B[0] TC GE_LT GE_GT_EQ 
+ GE_LT_GT_LE EQ_NE p1 p2 FE_OFN150_register_7__18 _register_7_18 
+ _register_7_10 _register_7_16 n5649 FE_OFN5783_register_7__9 
+ FE_OFN5853_FE_DBTN21_N1711 
XFE_RC_788_0 OAI21XL $PINS A0=n1448 A1=n1469 B0=n1468 Y=n1461 
XFE_RC_787_0 OAI21XL $PINS A0=n1452 A1=n1459 B0=n1458 Y=n1443 
XU664 AND2X2 $PINS A=B[3] B=A[3] Y=n1456 
XU622 AOI32X1 $PINS A0=_register_7_18 A1=n1493 A2=n1479 B0=n1495 B1=A[19] 
+ Y=n1477 
XU624 AOI32X1 $PINS A0=A[6] A1=n1487 A2=n1460 B0=n1486 B1=A[7] Y=n1458 
XU625 AOI32XL $PINS A0=n1455 A1=n1488 A2=A[4] B0=A[5] B1=n1491 Y=n1459 
XU626 AOI32X1 $PINS A0=n1449 A1=n1485 A2=A[8] B0=FE_OFN5783_register_7__9 
+ B1=n1498 Y=n1469 
XU627 OAI221XL $PINS A0=A[4] A1=n1488 B0=n1453 B1=n1454 C0=n1455 Y=n1451 
XU628 OR2XL $PINS A=A[19] B=n1495 Y=n1479 
XU629 OAI33X1 $PINS A0=n1492 A1=n1437 A2=n1438 B0=n1439 B1=n1440 B2=n1441 
+ Y=GE_LT_GT_LE 
XU630 OAI32X1 $PINS A0=n1442 A1=n1443 A2=n1444 B0=n1445 B1=n1442 Y=n1441 
XU631 NOR3BX1 $PINS AN=n1446 B=n1447 C=n1448 Y=n1445 
XU633 OAI2BB1X1 $PINS A0N=n1461 A1N=n1446 B0=n1462 Y=n1442 
XU634 OR3XL $PINS A=n1438 B=n1437 C=n1472 Y=n1439 
XU635 OAI32X1 $PINS A0=A[2] A1=B[2] A2=n1456 B0=B[3] B1=A[3] Y=n1454 
XU636 AOI211X1 $PINS A0=n1450 A1=n1482 B0=n1451 C0=n1452 Y=n1444 
XU637 INVX1 $PINS A=n1454 Y=n1482 
XU638 OAI22X1 $PINS A0=n1463 A1=n1464 B0=n1465 B1=n1463 Y=n1462 
XU639 OAI32X1 $PINS A0=A[12] A1=B[12] A2=n1466 B0=B[13] B1=p1 Y=n1464 
XU640 OAI32X1 $PINS A0=A[14] A1=B[14] A2=n1467 B0=B[15] B1=p2 Y=n1463 
XU642 NOR2BXL $PINS AN=B[15] B=A[15] Y=n1467 
XU643 NAND2X1 $PINS A=n1473 B=n1474 Y=n1438 
XU644 NOR4X1 $PINS A=B[31] B=B[30] C=B[29] D=B[28] Y=n1473 
XU646 AOI32XL $PINS A0=_register_7_10 A1=n1490 A2=n1470 B0=n1496 B1=A[11] 
+ Y=n1468 
XU647 INVX1 $PINS A=B[9] Y=n1498 
XU648 NAND2X1 $PINS A=n1475 B=n1476 Y=n1437 
XU649 NOR4X1 $PINS A=B[23] B=B[22] C=B[21] D=B[20] Y=n1475 
XU650 NOR4X1 $PINS A=B[27] B=B[26] C=B[25] D=B[24] Y=n1476 
XU651 INVX1 $PINS A=B[11] Y=n1496 
XU652 INVX1 $PINS A=B[7] Y=n1486 
XU653 INVX1 $PINS A=B[6] Y=n1487 
XU654 INVX1 $PINS A=B[1] Y=n1489 
XU655 OR2XL $PINS A=A[11] B=n1496 Y=n1470 
XU656 OR2XL $PINS A=A[7] B=n1486 Y=n1460 
XU657 AOI211X1 $PINS A0=A[12] A1=B[12] B0=n1466 C0=n1497 Y=n1446 
XU658 INVX1 $PINS A=n1465 Y=n1497 
XU659 INVX1 $PINS A=B[5] Y=n1491 
XU660 OAI21XL $PINS A0=_register_7_10 A1=n1490 B0=n1470 Y=n1448 
XU661 AOI21X1 $PINS A0=A[14] A1=B[14] B0=n1467 Y=n1465 
XU662 OAI21XL $PINS A0=_register_7_18 A1=n1493 B0=n1479 Y=n1472 
XU663 INVX1 $PINS A=B[18] Y=n1493 
XU665 INVX1 $PINS A=B[16] Y=n1499 
XU666 NOR2BXL $PINS AN=B[13] B=A[13] Y=n1466 
XU667 INVX1 $PINS A=B[19] Y=n1495 
XU669 NAND2BXL $PINS AN=FE_OFN5783_register_7__9 B=B[9] Y=n1449 
XU670 INVX1 $PINS A=B[17] Y=n1494 
XU671 NAND2BXL $PINS AN=A[5] B=B[5] Y=n1455 
XU672 INVX1 $PINS A=B[8] Y=n1485 
XU673 OAI21XL $PINS A0=A[8] A1=n1485 B0=n1449 Y=n1447 
XU674 AOI21X1 $PINS A0=B[2] A1=A[2] B0=n1456 Y=n1453 
XU675 INVX1 $PINS A=B[10] Y=n1490 
XU677 OAI21XL $PINS A0=n5649 A1=n1499 B0=n1471 Y=n1440 
XU678 INVX1 $PINS A=B[4] Y=n1488 
XU679 OR2XL $PINS A=A[17] B=n1494 Y=n1471 
XU680 INVX1 $PINS A=n1414 Y=n1492 
XU681 OAI21XL $PINS A0=n1478 A1=n1472 B0=n1477 Y=n1414 
XU682 AOI32XL $PINS A0=n5649 A1=n1499 A2=n1471 B0=n1494 B1=A[17] Y=n1478 
XU683 NOR4XL $PINS A=B[35] B=B[34] C=B[33] D=B[32] Y=n1474 
XU684 AOI2BB1XL $PINS A0N=n1489 A1N=A[1] B0=B[0] Y=n1457 
XU685 OAI21XL $PINS A0=A[6] A1=n1487 B0=n1460 Y=n1452 
XU686 AOI22XL $PINS A0=A[1] A1=n1489 B0=n1457 B1=FE_OFN5853_FE_DBTN21_N1711 
+ Y=n1450 
.ENDS

.SUBCKT CONV_DW_cmp_1 A[35] A[34] A[33] A[32] A[31] A[30] A[29] A[28] A[27] 
+ A[26] A[25] A[24] A[23] A[22] A[21] A[20] A[19] A[18] A[17] A[16] A[15] A[14] 
+ A[13] A[12] A[11] A[10] A[9] A[8] A[7] A[6] A[5] A[4] A[3] A[2] A[1] A[0] 
+ B[35] B[34] B[33] B[32] B[31] B[30] B[29] B[28] B[27] B[26] B[25] B[24] B[23] 
+ B[22] B[21] B[20] B[19] B[18] B[17] B[16] B[15] B[14] B[13] B[12] B[11] B[10] 
+ B[9] B[8] B[7] B[6] B[5] B[4] B[3] B[2] B[1] B[0] TC GE_LT GE_GT_EQ 
+ GE_LT_GT_LE EQ_NE p1 p2 FE_OFN54_register_6__9 
XFE_RC_801_0 OAI21XL $PINS A0=n1448 A1=n1469 B0=n1468 Y=n1461 
XFE_RC_789_0 OAI21XL $PINS A0=n1452 A1=n1459 B0=n1458 Y=n1443 
XFE_RC_782_0 AOI21X1 $PINS A0=n1464 A1=n1465 B0=n1463 Y=n1462 
XU666 AND2X2 $PINS A=B[3] B=A[3] Y=n1456 
XU620 AOI32X1 $PINS A0=A[6] A1=n1491 A2=n1460 B0=n1490 B1=A[7] Y=n1458 
XU621 AOI32X1 $PINS A0=A[10] A1=n1494 A2=n1470 B0=n1499 B1=A[11] Y=n1468 
XU623 AOI32X1 $PINS A0=n1455 A1=n1492 A2=A[4] B0=A[5] B1=n1495 Y=n1459 
XU624 AOI32XL $PINS A0=A[18] A1=n1496 A2=n1479 B0=n1498 B1=A[19] Y=n1477 
XU625 OAI32X1 $PINS A0=n1442 A1=n1443 A2=n1444 B0=n1445 B1=n1442 Y=n1441 
XU627 NOR3BX1 $PINS AN=n1446 B=n1447 C=n1448 Y=n1445 
XU628 OAI2BB1X1 $PINS A0N=n1461 A1N=n1446 B0=n1462 Y=n1442 
XU629 OAI32X1 $PINS A0=A[2] A1=B[2] A2=n1456 B0=B[3] B1=A[3] Y=n1454 
XU630 OAI33X1 $PINS A0=n1483 A1=n1437 A2=n1438 B0=n1439 B1=n1440 B2=n1441 
+ Y=GE_LT_GT_LE 
XU631 OAI21XL $PINS A0=A[16] A1=n1501 B0=n1471 Y=n1440 
XU632 INVX1 $PINS A=n1414 Y=n1483 
XU633 OR3XL $PINS A=n1438 B=n1437 C=n1472 Y=n1439 
XU635 AOI211X1 $PINS A0=n1450 A1=n1480 B0=n1451 C0=n1452 Y=n1444 
XU636 AOI22XL $PINS A0=A[1] A1=n1493 B0=n1457 B1=A[0] Y=n1450 
XU637 INVX1 $PINS A=n1454 Y=n1480 
XU638 OAI221XL $PINS A0=A[4] A1=n1492 B0=n1453 B1=n1454 C0=n1455 Y=n1451 
XU639 NAND2X1 $PINS A=n1473 B=n1474 Y=n1438 
XU640 NOR4X1 $PINS A=B[31] B=B[30] C=B[29] D=B[28] Y=n1473 
XU641 AOI211X1 $PINS A0=A[12] A1=B[12] B0=n1466 C0=n1485 Y=n1446 
XU642 INVX1 $PINS A=n1465 Y=n1485 
XU644 OAI21XL $PINS A0=A[10] A1=n1494 B0=n1470 Y=n1448 
XU645 NOR2BXL $PINS AN=B[15] B=A[15] Y=n1467 
XU647 NOR2BXL $PINS AN=B[13] B=A[13] Y=n1466 
XU648 OAI21XL $PINS A0=A[6] A1=n1491 B0=n1460 Y=n1452 
XU649 AOI21X1 $PINS A0=A[14] A1=B[14] B0=n1467 Y=n1465 
XU651 OAI32X1 $PINS A0=A[12] A1=B[12] A2=n1466 B0=B[13] B1=p1 Y=n1464 
XU652 OAI32X1 $PINS A0=A[14] A1=B[14] A2=n1467 B0=B[15] B1=p2 Y=n1463 
XU656 AOI32XL $PINS A0=n1449 A1=n1489 A2=A[8] B0=FE_OFN54_register_6__9 
+ B1=n1500 Y=n1469 
XU657 INVX1 $PINS A=B[9] Y=n1500 
XU658 NAND2BXL $PINS AN=FE_OFN54_register_6__9 B=B[9] Y=n1449 
XU659 AOI21X1 $PINS A0=B[2] A1=A[2] B0=n1456 Y=n1453 
XU660 NAND2X1 $PINS A=n1475 B=n1476 Y=n1437 
XU661 NOR4X1 $PINS A=B[23] B=B[22] C=B[21] D=B[20] Y=n1475 
XU662 NOR4X1 $PINS A=B[27] B=B[26] C=B[25] D=B[24] Y=n1476 
XU663 NAND2BXL $PINS AN=A[5] B=B[5] Y=n1455 
XU664 INVX1 $PINS A=B[7] Y=n1490 
XU665 OR2XL $PINS A=A[7] B=n1490 Y=n1460 
XU667 INVX1 $PINS A=B[11] Y=n1499 
XU668 OR2XL $PINS A=A[11] B=n1499 Y=n1470 
XU669 INVX1 $PINS A=B[5] Y=n1495 
XU670 OAI21XL $PINS A0=A[8] A1=n1489 B0=n1449 Y=n1447 
XU671 OAI21XL $PINS A0=A[18] A1=n1496 B0=n1479 Y=n1472 
XU672 INVX1 $PINS A=B[16] Y=n1501 
XU673 INVX1 $PINS A=B[18] Y=n1496 
XU674 INVX1 $PINS A=B[17] Y=n1497 
XU675 INVX1 $PINS A=B[19] Y=n1498 
XU676 OAI21XL $PINS A0=n1478 A1=n1472 B0=n1477 Y=n1414 
XU677 AOI32XL $PINS A0=A[16] A1=n1501 A2=n1471 B0=n1497 B1=A[17] Y=n1478 
XU678 INVX1 $PINS A=B[8] Y=n1489 
XU679 INVX1 $PINS A=B[6] Y=n1491 
XU680 INVX1 $PINS A=B[10] Y=n1494 
XU681 INVX1 $PINS A=B[1] Y=n1493 
XU682 AOI2BB1XL $PINS A0N=n1493 A1N=A[1] B0=B[0] Y=n1457 
XU683 OR2XL $PINS A=A[17] B=n1497 Y=n1471 
XU684 OR2XL $PINS A=A[19] B=n1498 Y=n1479 
XU685 INVX1 $PINS A=B[4] Y=n1492 
XU686 NOR4XL $PINS A=B[35] B=B[34] C=B[33] D=B[32] Y=n1474 
.ENDS

.SUBCKT CONV_DW_cmp_2 A[19] A[18] A[17] A[16] A[15] A[14] A[13] A[12] A[11] 
+ A[10] A[9] A[8] A[7] A[6] A[5] A[4] A[3] A[2] A[1] A[0] B[19] B[18] B[17] 
+ B[16] B[15] B[14] B[13] B[12] B[11] B[10] B[9] B[8] B[7] B[6] B[5] B[4] B[3] 
+ B[2] B[1] B[0] TC GE_LT GE_GT_EQ GE_LT_GT_LE EQ_NE n4937 p1 
+ FE_OFN58_register_5__4 FE_DBTN100_register_4_14 FE_OFN332_register_5__4 
+ _register_4_14 _register_4_8 _register_5_3 _register_4_11 _register_4_10 
+ _register_4_16 p_2 FE_OCPN103_register_4__7 
XFE_RC_800_0 INVX1 $PINS A=n141 Y=FE_RN_407_0 
XFE_RC_799_0 OAI2BB1X1 $PINS A0N=B[19] A1N=A[19] B0=FE_RN_407_0 Y=n178 
XFE_RC_794_0 INVX1 $PINS A=n152 Y=FE_RN_404_0 
XFE_RC_793_0 OAI2BB1X1 $PINS A0N=_register_4_10 A1N=A[10] B0=FE_RN_404_0 Y=n180 
XFE_RC_783_0 AOI21X1 $PINS A0=A[5] A1=B[5] B0=n163 Y=n155 
XFE_RC_780_0 OAI21XL $PINS A0=p_2 A1=_register_5_3 B0=n160 Y=n159 
XU61 OAI222XL $PINS A0=A[9] A1=n166 B0=n166 B1=B[9] C0=A[9] C1=B[9] Y=n146 
XU62 OAI222XL $PINS A0=A[13] A1=n173 B0=B[13] B1=n173 C0=A[13] C1=B[13] Y=n172 
XU64 OAI221XL $PINS A0=B[3] A1=p1 B0=n157 B1=n158 C0=n159 Y=n156 
XU65 OAI221XL $PINS A0=_register_4_10 A1=n146 B0=_register_4_10 B1=A[10] 
+ C0=n147 Y=n145 
XU66 NOR2BXL $PINS AN=_register_4_11 B=A[11] Y=n170 
XU67 OAI211X1 $PINS A0=A[15] A1=B[15] B0=n144 C0=n145 Y=n139 
XU68 OAI222XL $PINS A0=A[15] A1=n171 B0=B[15] B1=n171 C0=A[15] C1=B[15] Y=n138 
XU69 OAI222XL $PINS A0=_register_4_14 A1=A[14] B0=_register_4_14 B1=n172 
+ C0=A[14] C1=n172 Y=n171 
XU70 OAI222XL $PINS A0=A[12] A1=n174 B0=B[12] B1=n174 C0=B[12] C1=A[12] Y=n173 
XU72 NOR2BXL $PINS AN=A[2] B=B[2] Y=n160 
XU73 NOR2BXL $PINS AN=_register_4_16 B=A[16] Y=n143 
XU74 OAI221XL $PINS A0=B[19] A1=n135 B0=B[19] B1=A[19] C0=n136 Y=GE_LT_GT_LE 
XU75 AOI2BB1X1 $PINS A0N=A[19] A1N=n135 B0=n137 Y=n136 
XU76 OAI222XL $PINS A0=A[18] A1=n175 B0=n175 B1=B[18] C0=A[18] C1=B[18] Y=n135 
XU77 AOI21X1 $PINS A0=n138 A1=n139 B0=n178 Y=n137 
XU78 OAI22XL $PINS A0=n168 A1=A[14] B0=_register_4_14 B1=n168 Y=n144 
XU79 OAI21XL $PINS A0=A[13] A1=B[13] B0=n169 Y=n168 
XU80 OAI211XL $PINS A0=A[6] A1=B[6] B0=n155 C0=n156 Y=n150 
XU83 AOI2BB1X1 $PINS A0N=A[10] A1N=n146 B0=n148 Y=n147 
XU84 AOI21X1 $PINS A0=n149 A1=n150 B0=n180 Y=n148 
XU86 OAI222XL $PINS A0=A[6] A1=n164 B0=B[6] B1=n164 C0=A[6] C1=B[6] Y=n149 
XU87 OAI222XL $PINS A0=n176 A1=A[17] B0=B[17] B1=n176 C0=B[17] C1=A[17] Y=n175 
XU88 NAND2BXL $PINS AN=_register_4_16 B=A[16] Y=n176 
XU89 OAI222XL $PINS A0=n167 A1=A[8] B0=_register_4_8 B1=n167 C0=_register_4_8 
+ C1=A[8] Y=n166 
XU90 NAND2BXL $PINS AN=FE_OCPN103_register_4__7 B=A[7] Y=n167 
XU91 OAI222XL $PINS A0=A[5] A1=n165 B0=B[5] B1=n165 C0=B[5] C1=A[5] Y=n164 
XU96 OAI21XL $PINS A0=A[9] A1=B[9] B0=n153 Y=n152 
XU97 OAI22XL $PINS A0=n154 A1=A[8] B0=_register_4_8 B1=n154 Y=n153 
XU98 NOR2BXL $PINS AN=B[7] B=A[7] Y=n154 
XU101 OAI21XL $PINS A0=A[18] A1=B[18] B0=n142 Y=n141 
XU102 OAI22XL $PINS A0=n143 A1=A[17] B0=B[17] B1=n143 Y=n142 
XU103 NAND2BXL $PINS AN=_register_4_11 B=A[11] Y=n174 
XU104 AOI2BB1X1 $PINS A0N=A[1] A1N=B[1] B0=n161 Y=n158 
XU105 AOI22XL $PINS A0=B[1] A1=A[1] B0=B[0] B1=A[0] Y=n161 
XU110 OAI22XL $PINS A0=n170 A1=A[12] B0=B[12] B1=n170 Y=n169 
XU116 AOI22XL $PINS A0=n162 A1=p_2 B0=n162 B1=_register_5_3 Y=n157 
XU117 NAND2BXL $PINS AN=A[2] B=B[2] Y=n162 
XU118 NAND2BXL $PINS AN=B[4] B=FE_OFN58_register_5__4 Y=n165 
XU119 NOR2BXL $PINS AN=B[4] B=FE_OFN58_register_5__4 Y=n163 
.ENDS

.SUBCKT CONV_DW_cmp_3 A[35] A[34] A[33] A[32] A[31] A[30] A[29] A[28] A[27] 
+ A[26] A[25] A[24] A[23] A[22] A[21] A[20] A[19] A[18] A[17] A[16] A[15] A[14] 
+ A[13] A[12] A[11] A[10] A[9] A[8] A[7] A[6] A[5] A[4] A[3] A[2] A[1] A[0] 
+ B[35] B[34] B[33] B[32] B[31] B[30] B[29] B[28] B[27] B[26] B[25] B[24] B[23] 
+ B[22] B[21] B[20] B[19] B[18] B[17] B[16] B[15] B[14] B[13] B[12] B[11] B[10] 
+ B[9] B[8] B[7] B[6] B[5] B[4] B[3] B[2] B[1] B[0] TC GE_LT GE_GT_EQ 
+ GE_LT_GT_LE EQ_NE n5107 p1 FE_OFN101_CMF0_16 FE_OFN98_CMF0_18 
+ FE_OFN96_CMF0_19 FE_OFN123_CMF0_1 FE_OFN119_CMF0_4 FE_OFN111_CMF0_8 
+ FE_OFN115_CMF0_6 FE_OFN117_CMF0_5 FE_OFN113_CMF0_7 FE_OFN108_CMF0_10 
+ _register_3_16 N611 _register_3_18 
XFE_RC_791_0 OAI21XL $PINS A0=n1448 A1=n1469 B0=n1468 Y=n1461 
XFE_RC_790_0 OAI21XL $PINS A0=n1452 A1=n1459 B0=n1458 Y=n1443 
XFE_RC_784_0 AOI21X1 $PINS A0=n1464 A1=n1465 B0=n1463 Y=n1462 
XU658 AND2X2 $PINS A=B[3] B=A[3] Y=n1456 
XU620 AOI32X1 $PINS A0=A[10] A1=FE_OFN108_CMF0_10 A2=n1470 B0=n1496 B1=A[11] 
+ Y=n1468 
XU621 AOI32XL $PINS A0=A[6] A1=FE_OFN115_CMF0_6 A2=n1460 B0=FE_OFN113_CMF0_7 
+ B1=N611 Y=n1458 
XU622 AOI32XL $PINS A0=n1449 A1=FE_OFN111_CMF0_8 A2=A[8] B0=A[9] B1=n1498 
+ Y=n1469 
XU623 OAI33X1 $PINS A0=n1480 A1=n1437 A2=n1438 B0=n1439 B1=n1440 B2=n1441 
+ Y=GE_LT_GT_LE 
XU624 OAI21XL $PINS A0=_register_3_16 A1=FE_OFN101_CMF0_16 B0=n1471 Y=n1440 
XU625 INVX1 $PINS A=n1414 Y=n1480 
XU626 OAI32X1 $PINS A0=n1442 A1=n1443 A2=n1444 B0=n1445 B1=n1442 Y=n1441 
XU627 OR3XL $PINS A=n1438 B=n1437 C=n1472 Y=n1439 
XU628 OAI21XL $PINS A0=A[10] A1=FE_OFN108_CMF0_10 B0=n1470 Y=n1448 
XU630 OAI32X1 $PINS A0=A[14] A1=B[14] A2=n1467 B0=B[15] B1=p1 Y=n1463 
XU632 OAI32X1 $PINS A0=A[2] A1=B[2] A2=n1456 B0=B[3] B1=A[3] Y=n1454 
XU633 AOI211X1 $PINS A0=A[12] A1=B[12] B0=n1466 C0=n1482 Y=n1446 
XU634 INVX1 $PINS A=n1465 Y=n1482 
XU635 AOI211X1 $PINS A0=n1450 A1=n1484 B0=n1451 C0=n1452 Y=n1444 
XU636 INVX1 $PINS A=n1454 Y=n1484 
XU637 OAI221XL $PINS A0=A[4] A1=FE_OFN119_CMF0_4 B0=n1453 B1=n1454 C0=n1455 
+ Y=n1451 
XU638 NOR2BXL $PINS AN=B[15] B=A[15] Y=n1467 
XU640 AOI21X1 $PINS A0=A[14] A1=B[14] B0=n1467 Y=n1465 
XU642 AOI32XL $PINS A0=n1455 A1=FE_OFN119_CMF0_4 A2=A[4] B0=A[5] 
+ B1=FE_OFN117_CMF0_5 Y=n1459 
XU645 NOR3BX1 $PINS AN=n1446 B=n1447 C=n1448 Y=n1445 
XU646 OAI21XL $PINS A0=A[8] A1=FE_OFN111_CMF0_8 B0=n1449 Y=n1447 
XU647 OAI2BB1X1 $PINS A0N=n1461 A1N=n1446 B0=n1462 Y=n1442 
XU650 OAI32X1 $PINS A0=A[12] A1=B[12] A2=n1466 B0=B[13] B1=n5107 Y=n1464 
XU651 NAND2X1 $PINS A=n1473 B=n1474 Y=n1438 
XU652 NOR4X1 $PINS A=B[31] B=B[30] C=B[29] D=B[28] Y=n1473 
XU653 NOR4X1 $PINS A=B[35] B=B[34] C=B[33] D=B[32] Y=n1474 
XU654 AOI21X1 $PINS A0=B[2] A1=A[2] B0=n1456 Y=n1453 
XU655 INVX1 $PINS A=B[11] Y=n1496 
XU657 OR2XL $PINS A=A[11] B=n1496 Y=n1470 
XU661 OR2XL $PINS A=N611 B=FE_OFN113_CMF0_7 Y=n1460 
XU662 INVX1 $PINS A=B[9] Y=n1498 
XU663 OAI21XL $PINS A0=_register_3_18 A1=FE_OFN98_CMF0_18 B0=n1479 Y=n1472 
XU666 NOR2BXL $PINS AN=B[13] B=A[13] Y=n1466 
XU668 INVX1 $PINS A=B[17] Y=n1494 
XU670 OAI21XL $PINS A0=n1478 A1=n1472 B0=n1477 Y=n1414 
XU671 AOI32XL $PINS A0=_register_3_16 A1=FE_OFN101_CMF0_16 A2=n1471 B0=n1494 
+ B1=A[17] Y=n1478 
XU672 AOI32XL $PINS A0=_register_3_18 A1=FE_OFN98_CMF0_18 A2=n1479 
+ B0=FE_OFN96_CMF0_19 B1=A[19] Y=n1477 
XU676 NAND2X1 $PINS A=n1475 B=n1476 Y=n1437 
XU677 NOR4X1 $PINS A=B[23] B=B[22] C=B[21] D=B[20] Y=n1475 
XU678 NOR4X1 $PINS A=B[27] B=B[26] C=B[25] D=B[24] Y=n1476 
XU679 NAND2BXL $PINS AN=A[5] B=B[5] Y=n1455 
XU680 OR2XL $PINS A=A[19] B=FE_OFN96_CMF0_19 Y=n1479 
XU681 OR2XL $PINS A=A[17] B=n1494 Y=n1471 
XU683 NAND2BXL $PINS AN=A[9] B=B[9] Y=n1449 
XU684 OAI21XL $PINS A0=A[6] A1=FE_OFN115_CMF0_6 B0=n1460 Y=n1452 
XU685 AOI2BB1XL $PINS A0N=FE_OFN123_CMF0_1 A1N=A[1] B0=B[0] Y=n1457 
XU686 AOI22XL $PINS A0=A[1] A1=FE_OFN123_CMF0_1 B0=n1457 B1=A[0] Y=n1450 
.ENDS

.SUBCKT CONV_DW_cmp_4 A[35] A[34] A[33] A[32] A[31] A[30] A[29] A[28] A[27] 
+ A[26] A[25] A[24] A[23] A[22] A[21] A[20] A[19] A[18] A[17] A[16] A[15] A[14] 
+ A[13] A[12] A[11] A[10] A[9] A[8] A[7] A[6] A[5] A[4] A[3] A[2] A[1] A[0] 
+ B[35] B[34] B[33] B[32] B[31] B[30] B[29] B[28] B[27] B[26] B[25] B[24] B[23] 
+ B[22] B[21] B[20] B[19] B[18] B[17] B[16] B[15] B[14] B[13] B[12] B[11] B[10] 
+ B[9] B[8] B[7] B[6] B[5] B[4] B[3] B[2] B[1] B[0] TC GE_LT GE_GT_EQ 
+ GE_LT_GT_LE EQ_NE n5475 n5214 _register_2_10 _register_2_11 p1 p2 
+ FE_OFN101_CMF0_16 FE_OFN98_CMF0_18 FE_OFN96_CMF0_19 FE_OFN123_CMF0_1 
+ FE_OFN119_CMF0_4 FE_OFN111_CMF0_8 FE_OFN115_CMF0_6 FE_OFN117_CMF0_5 
+ FE_OFN113_CMF0_7 FE_OFN108_CMF0_10 FE_OFN66_register_2__8 
XFE_RC_792_0 OAI21XL $PINS A0=n1448 A1=n1469 B0=n1468 Y=n1461 
XFE_RC_786_0 OAI21XL $PINS A0=n1452 A1=n1459 B0=n1458 Y=n1443 
XFE_RC_785_0 AOI21X1 $PINS A0=n1464 A1=n1465 B0=n1463 Y=n1462 
XFE_OFC1548_register_2__8 INVXL $PINS A=A[8] Y=FE_OFN5752_register_2__8 
XU664 AND2X2 $PINS A=B[3] B=n5475 Y=n1456 
XU621 AOI32XL $PINS A0=A[16] A1=FE_OFN101_CMF0_16 A2=n1471 B0=n1492 B1=A[17] 
+ Y=n1478 
XU622 AOI32X1 $PINS A0=A[18] A1=FE_OFN98_CMF0_18 A2=n1479 B0=FE_OFN96_CMF0_19 
+ B1=A[19] Y=n1477 
XU623 NAND2BXL $PINS AN=A[9] B=B[9] Y=n1449 
XU624 OAI32X1 $PINS A0=n1442 A1=n1443 A2=n1444 B0=n1445 B1=n1442 Y=n1441 
XU626 NOR3BX1 $PINS AN=n1446 B=n1447 C=n1448 Y=n1445 
XU627 AOI211X1 $PINS A0=n1450 A1=n1482 B0=n1451 C0=n1452 Y=n1444 
XU628 INVX1 $PINS A=n1454 Y=n1482 
XU629 OAI33X1 $PINS A0=n1480 A1=n1437 A2=n1438 B0=n1439 B1=n1440 B2=n1441 
+ Y=GE_LT_GT_LE 
XU630 OR2XL $PINS A=A[7] B=FE_OFN113_CMF0_7 Y=n1460 
XU631 OR3XL $PINS A=n1438 B=n1437 C=n1472 Y=n1439 
XU632 OAI21XL $PINS A0=_register_2_10 A1=FE_OFN108_CMF0_10 B0=n1470 Y=n1448 
XU633 OAI21XL $PINS A0=A[16] A1=FE_OFN101_CMF0_16 B0=n1471 Y=n1440 
XU634 AOI32XL $PINS A0=A[6] A1=FE_OFN115_CMF0_6 A2=n1460 B0=FE_OFN113_CMF0_7 
+ B1=A[7] Y=n1458 
XU635 OAI32X1 $PINS A0=A[14] A1=B[14] A2=n1467 B0=B[15] B1=p2 Y=n1463 
XU638 OAI32X1 $PINS A0=n5214 A1=B[2] A2=n1456 B0=B[3] B1=n5475 Y=n1454 
XU641 AOI211X1 $PINS A0=A[12] A1=B[12] B0=n1466 C0=n1496 Y=n1446 
XU642 INVX1 $PINS A=n1465 Y=n1496 
XU643 AOI21X1 $PINS A0=A[14] A1=B[14] B0=n1467 Y=n1465 
XU644 NAND2X1 $PINS A=n1473 B=n1474 Y=n1438 
XU645 NOR4X1 $PINS A=B[31] B=B[30] C=B[29] D=B[28] Y=n1473 
XU646 NOR4X1 $PINS A=B[35] B=B[34] C=B[33] D=B[32] Y=n1474 
XU647 AOI32XL $PINS A0=_register_2_10 A1=FE_OFN108_CMF0_10 A2=n1470 B0=n1494 
+ B1=_register_2_11 Y=n1468 
XU648 OAI2BB1X1 $PINS A0N=n1461 A1N=n1446 B0=n1462 Y=n1442 
XU651 AOI32XL $PINS A0=n1449 A1=FE_OFN111_CMF0_8 A2=FE_OFN66_register_2__8 
+ B0=A[9] B1=n1497 Y=n1469 
XU654 INVX1 $PINS A=B[11] Y=n1494 
XU655 AOI32XL $PINS A0=n1455 A1=FE_OFN119_CMF0_4 A2=A[4] B0=A[5] 
+ B1=FE_OFN117_CMF0_5 Y=n1459 
XU657 OAI221XL $PINS A0=A[4] A1=FE_OFN119_CMF0_4 B0=n1453 B1=n1454 C0=n1455 
+ Y=n1451 
XU658 AOI21X1 $PINS A0=B[2] A1=n5214 B0=n1456 Y=n1453 
XU659 OAI32X1 $PINS A0=A[12] A1=B[12] A2=n1466 B0=B[13] B1=p1 Y=n1464 
XU661 OAI21XL $PINS A0=A[18] A1=FE_OFN98_CMF0_18 B0=n1479 Y=n1472 
XU666 NOR2BXL $PINS AN=B[13] B=A[13] Y=n1466 
XU667 INVX1 $PINS A=B[17] Y=n1492 
XU670 NAND2X1 $PINS A=n1475 B=n1476 Y=n1437 
XU671 NOR4X1 $PINS A=B[23] B=B[22] C=B[21] D=B[20] Y=n1475 
XU672 NOR4X1 $PINS A=B[27] B=B[26] C=B[25] D=B[24] Y=n1476 
XU673 OR2XL $PINS A=A[17] B=n1492 Y=n1471 
XU676 INVX1 $PINS A=B[9] Y=n1497 
XU677 INVX1 $PINS A=n1414 Y=n1480 
XU678 OAI21XL $PINS A0=n1478 A1=n1472 B0=n1477 Y=n1414 
XU679 NAND2BXL $PINS AN=A[5] B=B[5] Y=n1455 
XU680 AOI22XL $PINS A0=A[1] A1=FE_OFN123_CMF0_1 B0=n1457 B1=A[0] Y=n1450 
XU681 AOI2BB1XL $PINS A0N=FE_OFN123_CMF0_1 A1N=A[1] B0=B[0] Y=n1457 
XU682 OR2XL $PINS A=A[19] B=FE_OFN96_CMF0_19 Y=n1479 
XU683 OAI21XL $PINS A0=A[6] A1=FE_OFN115_CMF0_6 B0=n1460 Y=n1452 
XU684 OR2XL $PINS A=_register_2_11 B=n1494 Y=n1470 
XU685 NOR2BXL $PINS AN=B[15] B=A[15] Y=n1467 
XU686 OAI21XL $PINS A0=FE_OFN5752_register_2__8 A1=FE_OFN111_CMF0_8 B0=n1449 
+ Y=n1447 
.ENDS

.SUBCKT CONV_DW_cmp_5 A[19] A[18] A[17] A[16] A[15] A[14] A[13] A[12] A[11] 
+ A[10] A[9] A[8] A[7] A[6] A[5] A[4] A[3] A[2] A[1] A[0] B[19] B[18] B[17] 
+ B[16] B[15] B[14] B[13] B[12] B[11] B[10] B[9] B[8] B[7] B[6] B[5] B[4] B[3] 
+ B[2] B[1] B[0] TC GE_LT GE_GT_EQ GE_LT_GT_LE EQ_NE n5504 _register_1_11 n4988 
+ _register_0_17 p1 p2 FE_OFN93_register_1__6 FE_OFN5901_register_0__12 
XFE_RC_798_0 INVX1 $PINS A=n141 Y=FE_RN_406_0 
XFE_RC_797_0 OAI2BB1X1 $PINS A0N=B[19] A1N=n4988 B0=FE_RN_406_0 Y=n177 
XFE_RC_796_0 INVX1 $PINS A=n152 Y=FE_RN_405_0 
XFE_RC_795_0 OAI2BB1X1 $PINS A0N=B[10] A1N=A[10] B0=FE_RN_405_0 Y=n180 
XFE_RC_781_0 OAI21XL $PINS A0=p2 A1=A[3] B0=n160 Y=n159 
XFE_RC_779_0 AOI21X1 $PINS A0=A[5] A1=B[5] B0=n163 Y=n155 
XFE_RC_778_0 AOI21X1 $PINS A0=A[17] A1=_register_0_17 B0=n143 Y=n142 
XFE_RC_777_0 AOI21X1 $PINS A0=A[8] A1=B[8] B0=n154 Y=n153 
XU61 OAI222XL $PINS A0=B[14] A1=A[14] B0=B[14] B1=n172 C0=A[14] C1=n172 Y=n171 
XU62 OAI222XL $PINS A0=A[12] A1=n174 B0=FE_OFN5901_register_0__12 B1=n174 
+ C0=FE_OFN5901_register_0__12 C1=A[12] Y=n173 
XU68 NOR2BX1 $PINS AN=B[4] B=A[4] Y=n163 
XU72 OAI221XL $PINS A0=B[3] A1=p1 B0=n157 B1=n158 C0=n159 Y=n156 
XU73 OAI222XL $PINS A0=A[9] A1=n166 B0=n166 B1=B[9] C0=A[9] C1=B[9] Y=n146 
XU75 OAI222XL $PINS A0=A[13] A1=n173 B0=B[13] B1=n173 C0=A[13] C1=B[13] Y=n172 
XU76 NOR2BXL $PINS AN=A[2] B=B[2] Y=n160 
XU77 NOR2BXL $PINS AN=B[7] B=A[7] Y=n154 
XU78 OAI222XL $PINS A0=A[15] A1=n171 B0=n186 B1=n171 C0=A[15] C1=n186 Y=n138 
XU79 NAND2BXL $PINS AN=B[11] B=_register_1_11 Y=n174 
XU80 OAI221XL $PINS A0=B[19] A1=n135 B0=B[19] B1=n4988 C0=n136 Y=GE_LT_GT_LE 
XU81 AOI2BB1X1 $PINS A0N=n4988 A1N=n135 B0=n137 Y=n136 
XU82 OAI222XL $PINS A0=A[18] A1=n175 B0=n175 B1=B[18] C0=A[18] C1=B[18] Y=n135 
XU83 AOI21X1 $PINS A0=n138 A1=n139 B0=n177 Y=n137 
XU84 OAI222XL $PINS A0=n167 A1=A[8] B0=B[8] B1=n167 C0=B[8] C1=A[8] Y=n166 
XU85 NAND2BXL $PINS AN=B[7] B=A[7] Y=n167 
XU86 OAI222XL $PINS A0=n176 A1=A[17] B0=_register_0_17 B1=n176 
+ C0=_register_0_17 C1=A[17] Y=n175 
XU87 NAND2BXL $PINS AN=B[16] B=A[16] Y=n176 
XU88 OAI211XL $PINS A0=A[6] A1=B[6] B0=n155 C0=n156 Y=n150 
XU89 OAI211XL $PINS A0=A[15] A1=n186 B0=n144 C0=n145 Y=n139 
XU90 OAI22XL $PINS A0=n168 A1=A[14] B0=B[14] B1=n168 Y=n144 
XU91 OAI221XL $PINS A0=B[10] A1=n146 B0=B[10] B1=A[10] C0=n147 Y=n145 
XU93 NOR2BXL $PINS AN=B[16] B=A[16] Y=n143 
XU94 OAI22XL $PINS A0=n170 A1=A[12] B0=FE_OFN5901_register_0__12 B1=n170 Y=n169 
XU95 NOR2BXL $PINS AN=B[11] B=_register_1_11 Y=n170 
XU97 OAI21XL $PINS A0=A[9] A1=B[9] B0=n153 Y=n152 
XU101 OAI222XL $PINS A0=A[5] A1=n165 B0=B[5] B1=n165 C0=B[5] C1=A[5] Y=n164 
XU102 AOI2BB1X1 $PINS A0N=A[10] A1N=n146 B0=n148 Y=n147 
XU103 AOI21X1 $PINS A0=n149 A1=n150 B0=n180 Y=n148 
XU105 OAI222XL $PINS A0=FE_OFN93_register_1__6 A1=n164 B0=B[6] B1=n164 
+ C0=FE_OFN93_register_1__6 C1=B[6] Y=n149 
XU109 INVXL $PINS A=B[15] Y=n186 
XU111 NAND2BXL $PINS AN=A[2] B=B[2] Y=n162 
XU112 AOI2BB1XL $PINS A0N=n5504 A1N=B[1] B0=n161 Y=n158 
XU113 NAND2BXL $PINS AN=B[4] B=A[4] Y=n165 
XU114 OAI21XL $PINS A0=A[18] A1=B[18] B0=n142 Y=n141 
XU117 AOI22XL $PINS A0=n162 A1=p2 B0=n162 B1=A[3] Y=n157 
XU118 OAI21XL $PINS A0=A[13] A1=B[13] B0=n169 Y=n168 
XU119 AOI22XL $PINS A0=B[1] A1=n5504 B0=B[0] B1=A[0] Y=n161 
.ENDS

.SUBCKT CONV_DW01_inc_1_DW01_inc_2 A[12] A[11] A[10] A[9] A[8] A[7] A[6] A[5] 
+ A[4] A[3] A[2] A[1] A[0] SUM[12] SUM[11] SUM[10] SUM[9] SUM[8] SUM[7] SUM[6] 
+ SUM[5] SUM[4] SUM[3] SUM[2] SUM[1] SUM[0] 
XU1_1_5 ADDHXL $PINS A=A[5] B=carry[5] S=SUM[5] CO=carry[6] 
XU1_1_4 ADDHXL $PINS A=A[4] B=carry[4] S=SUM[4] CO=carry[5] 
XU1_1_3 ADDHXL $PINS A=A[3] B=carry[3] S=SUM[3] CO=carry[4] 
XU1_1_2 ADDHXL $PINS A=A[2] B=carry[2] S=SUM[2] CO=carry[3] 
XU1_1_10 ADDHXL $PINS A=A[10] B=carry[10] S=SUM[10] CO=carry[11] 
XU1_1_8 ADDHXL $PINS A=A[8] B=carry[8] S=SUM[8] CO=carry[9] 
XU1_1_9 ADDHXL $PINS A=A[9] B=carry[9] S=SUM[9] CO=carry[10] 
XU1_1_7 ADDHXL $PINS A=A[7] B=carry[7] S=SUM[7] CO=carry[8] 
XU1_1_6 ADDHXL $PINS A=A[6] B=carry[6] S=SUM[6] CO=carry[7] 
XU1_1_1 ADDHXL $PINS A=A[1] B=A[0] S=SUM[1] CO=carry[2] 
XU1_1_11 ADDHXL $PINS A=A[11] B=carry[11] S=SUM[11] CO=carry[12] 
XU1 INVXL $PINS A=A[0] Y=SUM[0] 
XU2 XOR2XL $PINS A=carry[12] B=A[12] Y=SUM[12] 
.ENDS

.SUBCKT CONV_DW01_inc_2_DW01_inc_3 A[12] A[11] A[10] A[9] A[8] A[7] A[6] A[5] 
+ A[4] A[3] A[2] A[1] A[0] SUM[12] SUM[11] SUM[10] SUM[9] SUM[8] SUM[7] SUM[6] 
+ SUM[5] SUM[4] SUM[3] SUM[2] SUM[1] SUM[0] p1 
*.CONNECT SUM[0] p1
XU1_1_10 ADDHXL $PINS A=A[10] B=carry[10] S=SUM[10] CO=carry[11] 
XU1_1_2 ADDHXL $PINS A=A[2] B=carry[2] S=SUM[2] CO=carry[3] 
XU1_1_4 ADDHXL $PINS A=A[4] B=carry[4] S=SUM[4] CO=carry[5] 
XU1_1_5 ADDHXL $PINS A=A[5] B=carry[5] S=SUM[5] CO=carry[6] 
XU1_1_8 ADDHXL $PINS A=A[8] B=carry[8] S=SUM[8] CO=carry[9] 
XU1_1_3 ADDHXL $PINS A=A[3] B=carry[3] S=SUM[3] CO=carry[4] 
XU1_1_9 ADDHXL $PINS A=A[9] B=carry[9] S=SUM[9] CO=carry[10] 
XU1_1_6 ADDHXL $PINS A=A[6] B=carry[6] S=SUM[6] CO=carry[7] 
XU1_1_1 ADDHXL $PINS A=A[1] B=A[0] S=SUM[1] CO=carry[2] 
XU1_1_11 ADDHXL $PINS A=A[11] B=carry[11] S=SUM[11] CO=carry[12] 
XU1_1_7 ADDHXL $PINS A=A[7] B=carry[7] S=SUM[7] CO=carry[8] 
XU2 XOR2X1 $PINS A=carry[12] B=A[12] Y=SUM[12] 
.ENDS

.SUBCKT CONV_DW01_inc_3_DW01_inc_4 A[19] A[18] A[17] A[16] A[15] A[14] A[13] 
+ A[12] A[11] A[10] A[9] A[8] A[7] A[6] A[5] A[4] A[3] A[2] A[1] A[0] SUM[19] 
+ SUM[18] SUM[17] SUM[16] SUM[15] SUM[14] SUM[13] SUM[12] SUM[11] SUM[10] 
+ SUM[9] SUM[8] SUM[7] SUM[6] SUM[5] SUM[4] SUM[3] SUM[2] SUM[1] SUM[0] 
XU1_1_16 ADDHXL $PINS A=A[16] B=carry[16] S=SUM[16] CO=carry[17] 
XU1_1_15 ADDHXL $PINS A=A[15] B=carry[15] S=SUM[15] CO=carry[16] 
XU1_1_10 ADDHXL $PINS A=A[10] B=carry[10] S=SUM[10] CO=carry[11] 
XU1_1_3 ADDHXL $PINS A=A[3] B=carry[3] S=SUM[3] CO=carry[4] 
XU1_1_2 ADDHXL $PINS A=A[2] B=carry[2] S=SUM[2] CO=carry[3] 
XU1_1_7 ADDHXL $PINS A=A[7] B=carry[7] S=SUM[7] CO=carry[8] 
XU1_1_9 ADDHXL $PINS A=A[9] B=carry[9] S=SUM[9] CO=carry[10] 
XU1_1_5 ADDHXL $PINS A=A[5] B=carry[5] S=SUM[5] CO=carry[6] 
XU1_1_6 ADDHXL $PINS A=A[6] B=carry[6] S=SUM[6] CO=carry[7] 
XU1_1_8 ADDHXL $PINS A=A[8] B=carry[8] S=SUM[8] CO=carry[9] 
XU1_1_4 ADDHXL $PINS A=A[4] B=carry[4] S=SUM[4] CO=carry[5] 
XU1_1_1 ADDHXL $PINS A=A[1] B=A[0] S=SUM[1] CO=carry[2] 
XU1_1_17 ADDHXL $PINS A=A[17] B=carry[17] S=SUM[17] CO=carry[18] 
XU1_1_11 ADDHXL $PINS A=A[11] B=carry[11] S=SUM[11] CO=carry[12] 
XU1_1_12 ADDHXL $PINS A=A[12] B=carry[12] S=SUM[12] CO=carry[13] 
XU1_1_13 ADDHXL $PINS A=A[13] B=carry[13] S=SUM[13] CO=carry[14] 
XU1_1_14 ADDHXL $PINS A=A[14] B=carry[14] S=SUM[14] CO=carry[15] 
XU1_1_18 ADDHXL $PINS A=A[18] B=carry[18] S=SUM[18] CO=carry[19] 
XU1 XOR2XL $PINS A=carry[19] B=A[19] Y=SUM[19] 
XU2 INVX1 $PINS A=A[0] Y=SUM[0] 
.ENDS

.SUBCKT CONV_DW01_inc_4_DW01_inc_5 A[19] A[18] A[17] A[16] A[15] A[14] A[13] 
+ A[12] A[11] A[10] A[9] A[8] A[7] A[6] A[5] A[4] A[3] A[2] A[1] A[0] SUM[19] 
+ SUM[18] SUM[17] SUM[16] SUM[15] SUM[14] SUM[13] SUM[12] SUM[11] SUM[10] 
+ SUM[9] SUM[8] SUM[7] SUM[6] SUM[5] SUM[4] SUM[3] SUM[2] SUM[1] SUM[0] 
XU1_1_11 ADDHXL $PINS A=A[11] B=carry[11] S=SUM[11] CO=carry[12] 
XU1_1_10 ADDHXL $PINS A=A[10] B=carry[10] S=SUM[10] CO=carry[11] 
XU1_1_12 ADDHXL $PINS A=A[12] B=carry[12] S=SUM[12] CO=carry[13] 
XU1_1_3 ADDHXL $PINS A=A[3] B=carry[3] S=SUM[3] CO=carry[4] 
XU1_1_2 ADDHXL $PINS A=A[2] B=carry[2] S=SUM[2] CO=carry[3] 
XU1_1_7 ADDHXL $PINS A=A[7] B=carry[7] S=SUM[7] CO=carry[8] 
XU1_1_9 ADDHXL $PINS A=A[9] B=carry[9] S=SUM[9] CO=carry[10] 
XU1_1_5 ADDHXL $PINS A=A[5] B=carry[5] S=SUM[5] CO=carry[6] 
XU1_1_8 ADDHXL $PINS A=A[8] B=carry[8] S=SUM[8] CO=carry[9] 
XU1_1_6 ADDHXL $PINS A=A[6] B=carry[6] S=SUM[6] CO=carry[7] 
XU1_1_4 ADDHXL $PINS A=A[4] B=carry[4] S=SUM[4] CO=carry[5] 
XU1_1_1 ADDHXL $PINS A=A[1] B=A[0] S=SUM[1] CO=carry[2] 
XU1_1_15 ADDHXL $PINS A=A[15] B=carry[15] S=SUM[15] CO=carry[16] 
XU1_1_13 ADDHXL $PINS A=A[13] B=carry[13] S=SUM[13] CO=carry[14] 
XU1_1_14 ADDHXL $PINS A=A[14] B=carry[14] S=SUM[14] CO=carry[15] 
XU1_1_17 ADDHXL $PINS A=A[17] B=carry[17] S=SUM[17] CO=carry[18] 
XU1_1_16 ADDHXL $PINS A=A[16] B=carry[16] S=SUM[16] CO=carry[17] 
XU1_1_18 ADDHXL $PINS A=A[18] B=carry[18] S=SUM[18] CO=carry[19] 
XU1 XOR2XL $PINS A=carry[19] B=A[19] Y=SUM[19] 
.ENDS

.SUBCKT CONV_DW_mult_uns_20 a[19] a[18] a[17] a[16] a[15] a[14] a[13] a[12] 
+ a[11] a[10] a[9] a[8] a[7] a[6] a[5] a[4] a[3] a[2] a[1] a[0] b[14] b[13] 
+ b[12] b[11] b[10] b[9] b[8] b[7] b[6] b[5] b[4] b[3] b[2] b[1] b[0] 
+ product[34] product[33] product[32] product[31] product[30] product[29] 
+ product[28] product[27] product[26] product[25] product[24] product[23] 
+ product[22] product[21] product[20] product[19] product[18] product[17] 
+ product[16] product[15] product[14] product[13] product[12] product[11] 
+ product[10] product[9] product[8] product[7] product[6] product[5] product[4] 
+ product[3] product[2] product[1] product[0] n5383 _register_2_10 p1 p2 p3 p4 
+ p5 p6 p7 p8 p9 p10 p11 p12 p13 p14 p15 p16 p17 FE_OFN12_register_2__1 
+ FE_OFN33_N567 FE_OFN44_n5215 p18 FE_OFN67_register_2__8 
+ FE_OFN72_register_2__14 FE_OFN74_register_2__6 FE_OFN77_register_2__5 
XFE_RC_654_0 AOI21X2 $PINS A0=n257 A1=n249 B0=n250 Y=n248 
XFE_RC_638_0 OAI21XL $PINS A0=n181 A1=n185 B0=n182 Y=n180 
XFE_OFC2137_n159 INVX2 $PINS A=n159 Y=n700 
XFE_OFC2119_n277 INVX1 $PINS A=n277 Y=n702 
XFE_OFC2112_n257 INVX1 $PINS A=n257 Y=n701 
XFE_OFC2083_n230 CLKINVX3 $PINS A=n698 Y=FE_OFN6073_n230 
XFE_OFC2082_n230 INVX4 $PINS A=n230 Y=n698 
XFE_OFC2056_n248 INVX1 $PINS A=n697 Y=FE_OFN6063_n248 
XFE_OFC2055_n248 INVX2 $PINS A=n248 Y=n697 
XFE_OFC1766_register_2__18 INVX1 $PINS A=a[18] Y=FE_OFN5868_register_2__18 
XFE_OFC1693_register_2__19 INVX1 $PINS A=p17 Y=FE_RN_1 
XFE_OFC1611_register_2__6 INVX1 $PINS A=a[6] Y=FE_OFN5786_register_2__6 
XFE_OFC855_n187 INVX8 $PINS A=n187 Y=n691 
XFE_OFC635_n5215 INVX1 $PINS A=a[2] Y=FE_OFN408_n5215 
XFE_OFC590_n208 INVX4 $PINS A=n208 Y=n690 
XU135 XNOR2X2 $PINS A=n147 B=n13 Y=product[23] 
XU166 AOI21X2 $PINS A0=n161 A1=n180 B0=n162 Y=n160 
XU218 NOR2X2 $PINS A=n422 B=n431 Y=n195 
XU226 NOR2X1 $PINS A=n432 B=n441 Y=n200 
XU407 ADDFHX2 $PINS A=n445 B=n443 CI=n434 S=n432 CO=n431 
XU121 XNOR2X4 $PINS A=n136 B=n12 Y=product[24] 
XU238 AOI21X4 $PINS A0=n217 A1=n209 B0=n210 Y=n208 
XU205 OAI21X4 $PINS A0=n208 A1=n188 B0=n189 Y=n187 
XU516 NOR2X2 $PINS A=n442 B=n449 Y=n205 
XU566 AND2X2 $PINS A=n143 B=n700 Y=n630 
XU736 AND2X2 $PINS A=n645 B=n277 Y=product[1] 
XU758 NOR2X2 $PINS A=n412 B=n421 Y=n192 
XU807 AND2X2 $PINS A=n627 B=n109 Y=n646 
XU482 XOR2X2 $PINS A=n444 B=n666 Y=n442 
XU483 ADDFX2 $PINS A=a[16] B=a[12] CI=n5383 S=n370 CO=n369 
XU484 OAI21XL $PINS A0=n84 A1=n710 B0=n83 Y=n73 
XU485 NAND2X1 $PINS A=n695 B=n206 Y=n685 
XU486 NAND2X1 $PINS A=n697 B=n29 Y=n651 